LTspice 24.1.9 for Windows
Circuit: D:\scWork\25 Yaz\Electronic Çalışması\Week01_BuckConverter_LTSpice\buck_converter_final.net
Start Time: Sun Jul 27 20:46:55 2025
solver = Normal
Maximum thread count: 12
tnom = 27
temp = 27
method = trap
D:\scWork\25 Yaz\Electronic Çalışması\Week01_BuckConverter_LTSpice\buck_converter_final.net(9): Limiting rise time to 2e-07.

V2 N004 0 PULSE(0 1 0 0 0 {Ton} {T})
^^^^^^^^^^^^^^^^^^^^^^^^^^^^^^^^^^^^
D:\scWork\25 Yaz\Electronic Çalışması\Week01_BuckConverter_LTSpice\buck_converter_final.net(9): Limiting fall time to 2e-07.

V2 N004 0 PULSE(0 1 0 0 0 {Ton} {T})
^^^^^^^^^^^^^^^^^^^^^^^^^^^^^^^^^^^^
Direct Newton iteration for .op point succeeded.
Total elapsed time: 1.060 seconds.

Files loaded:
D:\scWork\25 Yaz\Electronic Çalışması\Week01_BuckConverter_LTSpice\buck_converter_final.net
C:\Users\SCakmak\AppData\Local\LTspice\lib\cmp\standard.dio

